!-Generator IDFEditor 1.51
!-Option SortedOrder

!-NOTE: All comments with '!-' are ignored by the IDFEditor and are generated automatically.
!-      Use '!' comments if they need to be retained when using the IDFEditor.


!-   ===========  ALL OBJECTS IN CLASS: VERSION ===========

Version,
    9.3;                     !- Version Identifier


!-   ===========  ALL OBJECTS IN CLASS: SIMULATIONCONTROL ===========

SimulationControl,
    Yes,                     !- Do Zone Sizing Calculation
    Yes,                     !- Do System Sizing Calculation
    Yes,                     !- Do Plant Sizing Calculation
    Yes,                     !- Run Simulation for Sizing Periods
    Yes,                     !- Run Simulation for Weather File Run Periods
    No;                      !- Do HVAC Sizing Simulation for Sizing Periods


!-   ===========  ALL OBJECTS IN CLASS: BUILDING ===========

Building,
    Office,                  !- Name
    0,                       !- North Axis {deg}
    Suburbs,                 !- Terrain
    0.04,                    !- Loads Convergence Tolerance Value {W}
    0.4,                     !- Temperature Convergence Tolerance Value {deltaC}
    FullInteriorAndExteriorWithReflections,  !- Solar Distribution
    30,                      !- Maximum Number of Warmup Days
    6;                       !- Minimum Number of Warmup Days


!-   ===========  ALL OBJECTS IN CLASS: SHADOWCALCULATION ===========

ShadowCalculation,
    PolygonClipping,         !- Shading Calculation Method
    Periodic,                !- Shading Calculation Update Frequency Method
    20,                      !- Shading Calculation Update Frequency
    50000,                   !- Maximum Figures in Shadow Overlap Calculations
    SutherlandHodgman,       !- Polygon Clipping Algorithm
    512,                     !- Pixel Counting Resolution
    SimpleSkyDiffuseModeling,!- Sky Diffuse Modeling Algorithm
    No,                      !- Output External Shading Calculation Results
    No,                      !- Disable Self-Shading Within Shading Zone Groups
    No;                      !- Disable Self-Shading From Shading Zone Groups to Other Zones


!-   ===========  ALL OBJECTS IN CLASS: SURFACECONVECTIONALGORITHM:INSIDE ===========

SurfaceConvectionAlgorithm:Inside,
    TARP;                    !- Algorithm


!-   ===========  ALL OBJECTS IN CLASS: SURFACECONVECTIONALGORITHM:OUTSIDE ===========

SurfaceConvectionAlgorithm:Outside,
    DOE-2;                   !- Algorithm


!-   ===========  ALL OBJECTS IN CLASS: HEATBALANCEALGORITHM ===========

HeatBalanceAlgorithm,
    ConductionTransferFunction,  !- Algorithm
    200;                     !- Surface Temperature Upper Limit {C}


!-   ===========  ALL OBJECTS IN CLASS: ZONEAIRHEATBALANCEALGORITHM ===========

ZoneAirHeatBalanceAlgorithm,
    ThirdOrderBackwardDifference;  !- Algorithm


!-   ===========  ALL OBJECTS IN CLASS: ZONEAIRCONTAMINANTBALANCE ===========

ZoneAirContaminantBalance,
    No;                      !- Carbon Dioxide Concentration


!-   ===========  ALL OBJECTS IN CLASS: ZONECAPACITANCEMULTIPLIER:RESEARCHSPECIAL ===========

ZoneCapacitanceMultiplier:ResearchSpecial,
    Zone Capacitance Multiplier Research Special,  !- Name
    ,                        !- Zone or ZoneList Name
    ,                        !- Temperature Capacity Multiplier
    ,                        !- Humidity Capacity Multiplier
    ,                        !- Carbon Dioxide Capacity Multiplier
    ;                        !- Generic Contaminant Capacity Multiplier


!-   ===========  ALL OBJECTS IN CLASS: TIMESTEP ===========

Timestep,
    6;                       !- Number of Timesteps per Hour


!-   ===========  ALL OBJECTS IN CLASS: CONVERGENCELIMITS ===========

ConvergenceLimits,
    1;                       !- Minimum System Timestep {minutes}


!-   ===========  ALL OBJECTS IN CLASS: SITE:LOCATION ===========

Site:Location,
    Climate Zone 3,          !- Name
    37.7,                    !- Latitude {deg}
    -122.2,                  !- Longitude {deg}
    -8,                      !- Time Zone {hr}
    2;                       !- Elevation {m}


!-   ===========  ALL OBJECTS IN CLASS: SIZINGPERIOD:DESIGNDAY ===========

SizingPeriod:DesignDay,
    Berkeley Clg .5% Condns DB=>MWB,  !- Name
    8,                       !- Month
    21,                      !- Day of Month
    SummerDesignDay,         !- Day Type
    28.3,                    !- Maximum Dry-Bulb Temperature {C}
    8.9,                     !- Daily Dry-Bulb Temperature Range {deltaC}
    DefaultMultipliers,      !- Dry-Bulb Temperature Range Modifier Type
    ,                        !- Dry-Bulb Temperature Range Modifier Day Schedule Name
    Wetbulb,                 !- Humidity Condition Type
    17.8,                    !- Wetbulb or DewPoint at Maximum Dry-Bulb {C}
    ,                        !- Humidity Condition Day Schedule Name
    ,                        !- Humidity Ratio at Maximum Dry-Bulb {kgWater/kgDryAir}
    ,                        !- Enthalpy at Maximum Dry-Bulb {J/kg}
    ,                        !- Daily Wet-Bulb Temperature Range {deltaC}
    101301,                  !- Barometric Pressure {Pa}
    4.9,                     !- Wind Speed {m/s}
    290,                     !- Wind Direction {deg}
    No,                      !- Rain Indicator
    No,                      !- Snow Indicator
    No,                      !- Daylight Saving Time Indicator
    ASHRAETau,               !- Solar Model Indicator
    ,                        !- Beam Solar Day Schedule Name
    ,                        !- Diffuse Solar Day Schedule Name
    0.367,                   !- ASHRAE Clear Sky Optical Depth for Beam Irradiance (taub) {dimensionless}
    2.428;                   !- ASHRAE Clear Sky Optical Depth for Diffuse Irradiance (taud) {dimensionless}

SizingPeriod:DesignDay,
    Berkeley Htg 99.5% Condns DB,  !- Name
    1,                       !- Month
    21,                      !- Day of Month
    WinterDesignDay,         !- Day Type
    2.9,                     !- Maximum Dry-Bulb Temperature {C}
    0.0,                     !- Daily Dry-Bulb Temperature Range {deltaC}
    DefaultMultipliers,      !- Dry-Bulb Temperature Range Modifier Type
    ,                        !- Dry-Bulb Temperature Range Modifier Day Schedule Name
    Wetbulb,                 !- Humidity Condition Type
    2.9,                     !- Wetbulb or DewPoint at Maximum Dry-Bulb {C}
    ,                        !- Humidity Condition Day Schedule Name
    ,                        !- Humidity Ratio at Maximum Dry-Bulb {kgWater/kgDryAir}
    ,                        !- Enthalpy at Maximum Dry-Bulb {J/kg}
    ,                        !- Daily Wet-Bulb Temperature Range {deltaC}
    101301.,                 !- Barometric Pressure {Pa}
    2.2,                     !- Wind Speed {m/s}
    50,                      !- Wind Direction {deg}
    No,                      !- Rain Indicator
    No,                      !- Snow Indicator
    No,                      !- Daylight Saving Time Indicator
    ASHRAEClearSky,          !- Solar Model Indicator
    ,                        !- Beam Solar Day Schedule Name
    ,                        !- Diffuse Solar Day Schedule Name
    ,                        !- ASHRAE Clear Sky Optical Depth for Beam Irradiance (taub) {dimensionless}
    ,                        !- ASHRAE Clear Sky Optical Depth for Diffuse Irradiance (taud) {dimensionless}
    0.00;                    !- Sky Clearness

  Site:GroundTemperature:BuildingSurface,20.56,20.58,20.57,20.61,20.65,22.79,23.17,23.23,23.27,21.11,20.77,20.63;

!-   ===========  ALL OBJECTS IN CLASS: RUNPERIOD ===========

RunPeriod,
    datarun,                 !- Name
    10,                      !- Begin Month
    1,                       !- Begin Day of Month
    2020,                    !- Begin Year
    10,                      !- End Month
    31,                      !- End Day of Month
    2020,                    !- End Year
    Thursday,                !- Day of Week for Start Day
    No,                      !- Use Weather File Holidays and Special Days
    No,                      !- Use Weather File Daylight Saving Period
    No,                      !- Apply Weekend Holiday Rule
    Yes,                     !- Use Weather File Rain Indicators
    Yes;                     !- Use Weather File Snow Indicators


!-   ===========  ALL OBJECTS IN CLASS: RUNPERIODCONTROL:DAYLIGHTSAVINGTIME ===========

RunPeriodControl:DaylightSavingTime,
    2nd Sunday in March,     !- Start Date
    1st Sunday in November;  !- End Date


!-   ===========  ALL OBJECTS IN CLASS: SCHEDULETYPELIMITS ===========

ScheduleTypeLimits,
    Fraction,                !- Name
    0,                       !- Lower Limit Value
    1,                       !- Upper Limit Value
    CONTINUOUS;              !- Numeric Type

ScheduleTypeLimits,
    FlexLab-X3-ZoneA-Core-Zone Thermal Zone Thermostat Schedule Type Limits,  !- Name
    0,                       !- Lower Limit Value
    4,                       !- Upper Limit Value
    DISCRETE;                !- Numeric Type

ScheduleTypeLimits,
    Temperature,             !- Name
    -60,                     !- Lower Limit Value
    200,                     !- Upper Limit Value
    CONTINUOUS,              !- Numeric Type
    temperature;             !- Unit Type

ScheduleTypeLimits,
    FlexLab-X3-ZoneA-North-Zone Thermal Zone Thermostat Schedule Type Limits,  !- Name
    0,                       !- Lower Limit Value
    4,                       !- Upper Limit Value
    DISCRETE;                !- Numeric Type

ScheduleTypeLimits,
    FlexLab-X3-ZoneA-South-Zone Thermal Zone Thermostat Schedule Type Limits,  !- Name
    0,                       !- Lower Limit Value
    4,                       !- Upper Limit Value
    DISCRETE;                !- Numeric Type

ScheduleTypeLimits,
    FlexLab-X3-ZoneB-Core-Zone Thermal Zone Thermostat Schedule Type Limits,  !- Name
    0,                       !- Lower Limit Value
    4,                       !- Upper Limit Value
    DISCRETE;                !- Numeric Type

ScheduleTypeLimits,
    FlexLab-X3-ZoneB-North-Zone Thermal Zone Thermostat Schedule Type Limits,  !- Name
    0,                       !- Lower Limit Value
    4,                       !- Upper Limit Value
    DISCRETE;                !- Numeric Type

ScheduleTypeLimits,
    FlexLab-X3-ZoneB-South-Zone Thermal Zone Thermostat Schedule Type Limits,  !- Name
    0,                       !- Lower Limit Value
    4,                       !- Upper Limit Value
    DISCRETE;                !- Numeric Type

ScheduleTypeLimits,
    ActivityLevel,           !- Name
    0,                       !- Lower Limit Value
    ,                        !- Upper Limit Value
    Continuous,              !- Numeric Type
    activitylevel;           !- Unit Type

ScheduleTypeLimits,
    AnyNumber,               !- Name
    ,                        !- Lower Limit Value
    ,                        !- Upper Limit Value
    CONTINUOUS;              !- Numeric Type

ScheduleTypeLimits,
    Capacity,                !- Name
    0,                       !- Lower Limit Value
    ,                        !- Upper Limit Value
    Continuous,              !- Numeric Type
    capacity;                !- Unit Type

ScheduleTypeLimits,
    Any Number;              !- Name

ScheduleTypeLimits,
    DeltaTemperature,        !- Name
    ,                        !- Lower Limit Value
    ,                        !- Upper Limit Value
    Continuous,              !- Numeric Type
    deltatemperature;        !- Unit Type

ScheduleTypeLimits,
    Dimensionless,           !- Name
    ,                        !- Lower Limit Value
    ,                        !- Upper Limit Value
    Continuous;              !- Numeric Type

ScheduleTypeLimits,
    Dimensionless 1,         !- Name
    -1,                      !- Lower Limit Value
    1,                       !- Upper Limit Value
    Continuous;              !- Numeric Type

ScheduleTypeLimits,
    Dimensionless 2,         !- Name
    0.1,                     !- Lower Limit Value
    1000,                    !- Upper Limit Value
    Continuous;              !- Numeric Type

ScheduleTypeLimits,
    Dimensionless 3,         !- Name
    0,                       !- Lower Limit Value
    1,                       !- Upper Limit Value
    Continuous,              !- Numeric Type
    dimensionless;           !- Unit Type

ScheduleTypeLimits,
    Fractional,              !- Name
    0,                       !- Lower Limit Value
    1,                       !- Upper Limit Value
    Continuous;              !- Numeric Type

ScheduleTypeLimits,
    On/Off,                  !- Name
    0,                       !- Lower Limit Value
    1,                       !- Upper Limit Value
    DISCRETE,                !- Numeric Type
    availability;            !- Unit Type

ScheduleTypeLimits,
    On/OffHV,                !- Name
    0,                       !- Lower Limit Value
    1,                       !- Upper Limit Value
    DISCRETE,                !- Numeric Type
    availability;            !- Unit Type

ScheduleTypeLimits,
    OnOff,                   !- Name
    0,                       !- Lower Limit Value
    1,                       !- Upper Limit Value
    Discrete,                !- Numeric Type
    availability;            !- Unit Type

ScheduleTypeLimits,
    OnOff 1,                 !- Name
    0,                       !- Lower Limit Value
    1,                       !- Upper Limit Value
    Discrete,                !- Numeric Type
    availability;            !- Unit Type

ScheduleTypeLimits,
    OnOff 10,                !- Name
    0,                       !- Lower Limit Value
    1,                       !- Upper Limit Value
    Discrete,                !- Numeric Type
    availability;            !- Unit Type

ScheduleTypeLimits,
    OnOff 11,                !- Name
    0,                       !- Lower Limit Value
    1,                       !- Upper Limit Value
    Discrete,                !- Numeric Type
    availability;            !- Unit Type

ScheduleTypeLimits,
    OnOff 12,                !- Name
    0,                       !- Lower Limit Value
    1,                       !- Upper Limit Value
    Discrete,                !- Numeric Type
    availability;            !- Unit Type

ScheduleTypeLimits,
    OnOff 13,                !- Name
    0,                       !- Lower Limit Value
    1,                       !- Upper Limit Value
    Discrete,                !- Numeric Type
    availability;            !- Unit Type

ScheduleTypeLimits,
    OnOff 14,                !- Name
    0,                       !- Lower Limit Value
    1,                       !- Upper Limit Value
    Discrete,                !- Numeric Type
    availability;            !- Unit Type

ScheduleTypeLimits,
    OnOff 15,                !- Name
    0,                       !- Lower Limit Value
    1,                       !- Upper Limit Value
    Discrete,                !- Numeric Type
    availability;            !- Unit Type

ScheduleTypeLimits,
    OnOff 16,                !- Name
    0,                       !- Lower Limit Value
    1,                       !- Upper Limit Value
    Discrete,                !- Numeric Type
    availability;            !- Unit Type

ScheduleTypeLimits,
    OnOff 17,                !- Name
    0,                       !- Lower Limit Value
    1,                       !- Upper Limit Value
    Discrete,                !- Numeric Type
    availability;            !- Unit Type

ScheduleTypeLimits,
    OnOff 18,                !- Name
    0,                       !- Lower Limit Value
    1,                       !- Upper Limit Value
    Discrete,                !- Numeric Type
    availability;            !- Unit Type

ScheduleTypeLimits,
    OnOff 19,                !- Name
    0,                       !- Lower Limit Value
    1,                       !- Upper Limit Value
    Discrete,                !- Numeric Type
    availability;            !- Unit Type

ScheduleTypeLimits,
    OnOff 2,                 !- Name
    0,                       !- Lower Limit Value
    1,                       !- Upper Limit Value
    Discrete,                !- Numeric Type
    availability;            !- Unit Type

ScheduleTypeLimits,
    OnOff 3,                 !- Name
    0,                       !- Lower Limit Value
    1,                       !- Upper Limit Value
    Discrete,                !- Numeric Type
    availability;            !- Unit Type

ScheduleTypeLimits,
    OnOff 4,                 !- Name
    0,                       !- Lower Limit Value
    1,                       !- Upper Limit Value
    Discrete,                !- Numeric Type
    availability;            !- Unit Type

ScheduleTypeLimits,
    OnOff 5,                 !- Name
    0,                       !- Lower Limit Value
    1,                       !- Upper Limit Value
    Discrete,                !- Numeric Type
    availability;            !- Unit Type

ScheduleTypeLimits,
    OnOff 6,                 !- Name
    0,                       !- Lower Limit Value
    1,                       !- Upper Limit Value
    Discrete,                !- Numeric Type
    availability;            !- Unit Type

ScheduleTypeLimits,
    OnOff 7,                 !- Name
    0,                       !- Lower Limit Value
    1,                       !- Upper Limit Value
    Discrete,                !- Numeric Type
    availability;            !- Unit Type

ScheduleTypeLimits,
    OnOff 8,                 !- Name
    0,                       !- Lower Limit Value
    1,                       !- Upper Limit Value
    Discrete,                !- Numeric Type
    availability;            !- Unit Type

ScheduleTypeLimits,
    OnOff 9,                 !- Name
    0,                       !- Lower Limit Value
    1,                       !- Upper Limit Value
    Discrete,                !- Numeric Type
    availability;            !- Unit Type

ScheduleTypeLimits,
    OnOff hvac_library,      !- Name
    0,                       !- Lower Limit Value
    1,                       !- Upper Limit Value
    Discrete,                !- Numeric Type
    availability;            !- Unit Type

ScheduleTypeLimits,
    Percent,                 !- Name
    0,                       !- Lower Limit Value
    100,                     !- Upper Limit Value
    Continuous,              !- Numeric Type
    percent;                 !- Unit Type

ScheduleTypeLimits,
    Temperature 1,           !- Name
    ,                        !- Lower Limit Value
    ,                        !- Upper Limit Value
    Continuous,              !- Numeric Type
    temperature;             !- Unit Type

ScheduleTypeLimits,
    Temperature 2,           !- Name
    ,                        !- Lower Limit Value
    0,                       !- Upper Limit Value
    Continuous,              !- Numeric Type
    temperature;             !- Unit Type

ScheduleTypeLimits,
    Temperature 3,           !- Name
    0,                       !- Lower Limit Value
    ,                        !- Upper Limit Value
    Continuous,              !- Numeric Type
    temperature;             !- Unit Type

ScheduleTypeLimits,
    TemperatureHV,           !- Name
    -60,                     !- Lower Limit Value
    200,                     !- Upper Limit Value
    CONTINUOUS,              !- Numeric Type
    temperature;             !- Unit Type

ScheduleTypeLimits,
    Velocity,                !- Name
    0,                       !- Lower Limit Value
    ,                        !- Upper Limit Value
    Continuous,              !- Numeric Type
    velocity;                !- Unit Type

ScheduleTypeLimits,
    {489b412d-5e5d-49d4-8ae5-3d603aa39e69};  !- Name


!-   ===========  ALL OBJECTS IN CLASS: SCHEDULE:DAY:INTERVAL ===========

Schedule:Day:Interval,
    Chilled_Water_Temperature_Default,  !- Name
    Temperature 1,           !- Schedule Type Limits Name
    No,                      !- Interpolate to Timestep
    24:00,                   !- Time 1 {hh:mm}
    6.7;                     !- Value Until Time 1

Schedule:Day:Interval,
    Chilled_Water_Temperature_Default 1,  !- Name
    Temperature 1,                        !- Schedule Type Limits Name
    No,                      !- Interpolate to Timestep
    24:00,                   !- Time 1 {hh:mm}
    6.7;                     !- Value Until Time 1

Schedule:Day:Interval,
    Chilled_Water_Temperature_Default 2,  !- Name
    Temperature 1,           !- Schedule Type Limits Name
    No,                      !- Interpolate to Timestep
    24:00,                   !- Time 1 {hh:mm}
    6.7;                     !- Value Until Time 1

Schedule:Day:Interval,
    Chilled_Water_Temperature_Summer_Design_Day,  !- Name
    Temperature 1,           !- Schedule Type Limits Name
    No,                      !- Interpolate to Timestep
    24:00,                   !- Time 1 {hh:mm}
    6.7;                     !- Value Until Time 1

Schedule:Day:Interval,
    Chilled_Water_Temperature_Summer_Design_Day 1,  !- Name
    Temperature 1,                        !- Schedule Type Limits Name
    No,                      !- Interpolate to Timestep
    24:00,                   !- Time 1 {hh:mm}
    6.7;                     !- Value Until Time 1

Schedule:Day:Interval,
    Chilled_Water_Temperature_Summer_Design_Day 2,  !- Name
    Temperature 1,           !- Schedule Type Limits Name
    No,                      !- Interpolate to Timestep
    24:00,                   !- Time 1 {hh:mm}
    6.7;                     !- Value Until Time 1

Schedule:Day:Interval,
    Chilled_Water_Temperature_Winter_Design_Day,  !- Name
    Temperature 1,           !- Schedule Type Limits Name
    No,                      !- Interpolate to Timestep
    24:00,                   !- Time 1 {hh:mm}
    6.7;                     !- Value Until Time 1

Schedule:Day:Interval,
    Chilled_Water_Temperature_Winter_Design_Day 1,  !- Name
    Temperature 1,                        !- Schedule Type Limits Name
    No,                      !- Interpolate to Timestep
    24:00,                   !- Time 1 {hh:mm}
    6.7;                     !- Value Until Time 1

Schedule:Day:Interval,
    Chilled_Water_Temperature_Winter_Design_Day 2,  !- Name
    Temperature 1,           !- Schedule Type Limits Name
    No,                      !- Interpolate to Timestep
    24:00,                   !- Time 1 {hh:mm}
    6.7;                     !- Value Until Time 1

Schedule:Day:Interval,
    Deck_Temperature_Default,!- Name
    Temperature 1,           !- Schedule Type Limits Name
    No,                      !- Interpolate to Timestep
    24:00,                   !- Time 1 {hh:mm}
    12.8;                    !- Value Until Time 1

Schedule:Day:Interval,
    Deck_Temperature_Default 1,  !- Name
    Temperature 1,           !- Schedule Type Limits Name
    No,                      !- Interpolate to Timestep
    24:00,                   !- Time 1 {hh:mm}
    12.8;                    !- Value Until Time 1

Schedule:Day:Interval,
    Deck_Temperature_Default 2,  !- Name
    Temperature 1,           !- Schedule Type Limits Name
    No,                      !- Interpolate to Timestep
    24:00,                   !- Time 1 {hh:mm}
    12.8;                    !- Value Until Time 1

Schedule:Day:Interval,
    Deck_Temperature_Summer_Design_Day,  !- Name
    Temperature 1,           !- Schedule Type Limits Name
    No,                      !- Interpolate to Timestep
    24:00,                   !- Time 1 {hh:mm}
    12.8;                    !- Value Until Time 1

Schedule:Day:Interval,
    Deck_Temperature_Summer_Design_Day 1,  !- Name
    Temperature 1,           !- Schedule Type Limits Name
    No,                      !- Interpolate to Timestep
    24:00,                   !- Time 1 {hh:mm}
    12.8;                    !- Value Until Time 1

Schedule:Day:Interval,
    Deck_Temperature_Summer_Design_Day 2,  !- Name
    Temperature 1,           !- Schedule Type Limits Name
    No,                      !- Interpolate to Timestep
    24:00,                   !- Time 1 {hh:mm}
    12.8;                    !- Value Until Time 1

Schedule:Day:Interval,
    Deck_Temperature_Winter_Design_Day,  !- Name
    Temperature 1,           !- Schedule Type Limits Name
    No,                      !- Interpolate to Timestep
    24:00,                   !- Time 1 {hh:mm}
    12.8;                    !- Value Until Time 1

Schedule:Day:Interval,
    Deck_Temperature_Winter_Design_Day 1,  !- Name
    Temperature 1,           !- Schedule Type Limits Name
    No,                      !- Interpolate to Timestep
    24:00,                   !- Time 1 {hh:mm}
    12.8;                    !- Value Until Time 1

Schedule:Day:Interval,
    Deck_Temperature_Winter_Design_Day 2,  !- Name
    Temperature 1,           !- Schedule Type Limits Name
    No,                      !- Interpolate to Timestep
    24:00,                   !- Time 1 {hh:mm}
    12.8;                    !- Value Until Time 1

Schedule:Day:Interval,
    Hot_Water_Temperature_Default,  !- Name
    Temperature 1,           !- Schedule Type Limits Name
    No,                      !- Interpolate to Timestep
    24:00,                   !- Time 1 {hh:mm}
    67;                      !- Value Until Time 1

Schedule:Day:Interval,
    Hot_Water_Temperature_Default 1,  !- Name
    Temperature 1,           !- Schedule Type Limits Name
    No,                      !- Interpolate to Timestep
    24:00,                   !- Time 1 {hh:mm}
    67;                      !- Value Until Time 1

Schedule:Day:Interval,
    Hot_Water_Temperature_Default 2,  !- Name
    Temperature 1,           !- Schedule Type Limits Name
    No,                      !- Interpolate to Timestep
    24:00,                   !- Time 1 {hh:mm}
    67;                      !- Value Until Time 1

Schedule:Day:Interval,
    Hot_Water_Temperature_Summer_Design_Day,  !- Name
    Temperature 1,           !- Schedule Type Limits Name
    No,                      !- Interpolate to Timestep
    24:00,                   !- Time 1 {hh:mm}
    67;                      !- Value Until Time 1

Schedule:Day:Interval,
    Hot_Water_Temperature_Summer_Design_Day 1,  !- Name
    Temperature 1,           !- Schedule Type Limits Name
    No,                      !- Interpolate to Timestep
    24:00,                   !- Time 1 {hh:mm}
    67;                      !- Value Until Time 1

Schedule:Day:Interval,
    Hot_Water_Temperature_Summer_Design_Day 2,  !- Name
    Temperature 1,           !- Schedule Type Limits Name
    No,                      !- Interpolate to Timestep
    24:00,                   !- Time 1 {hh:mm}
    67;                      !- Value Until Time 1

Schedule:Day:Interval,
    Hot_Water_Temperature_Winter_Design_Day,  !- Name
    Temperature 1,           !- Schedule Type Limits Name
    No,                      !- Interpolate to Timestep
    24:00,                   !- Time 1 {hh:mm}
    67;                      !- Value Until Time 1

Schedule:Day:Interval,
    Hot_Water_Temperature_Winter_Design_Day 1,  !- Name
    Temperature 1,           !- Schedule Type Limits Name
    No,                      !- Interpolate to Timestep
    24:00,                   !- Time 1 {hh:mm}
    67;                      !- Value Until Time 1

Schedule:Day:Interval,
    Hot_Water_Temperature_Winter_Design_Day 2,  !- Name
    Temperature 1,           !- Schedule Type Limits Name
    No,                      !- Interpolate to Timestep
    24:00,                   !- Time 1 {hh:mm}
    67;                      !- Value Until Time 1


!-   ===========  ALL OBJECTS IN CLASS: SCHEDULE:WEEK:DAILY ===========

Schedule:Week:Daily,
    Chilled_Water_Temperature Week Rule - Jan1-Dec31,  !- Name
    Chilled_Water_Temperature_Default,  !- Sunday Schedule:Day Name
    Chilled_Water_Temperature_Default,  !- Monday Schedule:Day Name
    Chilled_Water_Temperature_Default,  !- Tuesday Schedule:Day Name
    Chilled_Water_Temperature_Default,  !- Wednesday Schedule:Day Name
    Chilled_Water_Temperature_Default,  !- Thursday Schedule:Day Name
    Chilled_Water_Temperature_Default,  !- Friday Schedule:Day Name
    Chilled_Water_Temperature_Default,  !- Saturday Schedule:Day Name
    Chilled_Water_Temperature_Default,  !- Holiday Schedule:Day Name
    Chilled_Water_Temperature_Summer_Design_Day,  !- SummerDesignDay Schedule:Day Name
    Chilled_Water_Temperature_Winter_Design_Day,  !- WinterDesignDay Schedule:Day Name
    Chilled_Water_Temperature_Default,  !- CustomDay1 Schedule:Day Name
    Chilled_Water_Temperature_Default;  !- CustomDay2 Schedule:Day Name

Schedule:Week:Daily,
    Chilled_Water_Temperature 1 Week Rule - Jan1-Dec31,  !- Name
    Chilled_Water_Temperature_Default 1,  !- Sunday Schedule:Day Name
    Chilled_Water_Temperature_Default 1,  !- Monday Schedule:Day Name
    Chilled_Water_Temperature_Default 1,  !- Tuesday Schedule:Day Name
    Chilled_Water_Temperature_Default 1,  !- Wednesday Schedule:Day Name